/*--------------------------------*- C++ -*----------------------------------*\
| =========                 |                                                 |
| \\      /  F ield         | OpenFOAM: The Open Source CFD Toolbox           |
|  \\    /   O peration     | Version:  5.x                                   |
|   \\  /    A nd           | Web:      www.OpenFOAM.org                      |
|    \\/     M anipulation  |                                                 |
\*---------------------------------------------------------------------------*/
/*   Windows 32 and 64 bit porting by blueCAPE: http://www.bluecape.com.pt   *\
|  Based on Windows porting (2.0.x v4) by Symscape: http://www.symscape.com   |
\*---------------------------------------------------------------------------*/
FoamFile
{
    version     2.0;
    format      ascii;
    class       extendedFeatureEdgeMesh;
    location    "constant/extendedFeatureEdgeMesh";
    object      corgate.extendedFeatureEdgeMesh;
}
// * * * * * * * * * * * * * * * * * * * * * * * * * * * * * * * * * * * * * //

// points

28
(
(0.00447862 -4.16334e-018 -0.00625001)
(-1.7319e-021 4.78499e-037 7.18323e-022)
(-1.7319e-021 1 -6.66134e-016)
(0.00447862 1 -0.00625001)
(0.0501253 2.39267e-017 0.0359187)
(0.0501253 1 0.0359187)
(0.299296 -4.10386e-017 -0.0616071)
(0.299296 1 -0.0616071)
(0.399412 3.73907e-017 0.0561309)
(0.399412 1 0.0561309)
(0.651313 -3.16873e-017 -0.0475689)
(0.651313 1 -0.0475689)
(0.749361 1.8655e-017 0.0280048)
(0.749361 1 0.0280048)
(1 0 0)
(1 1 -6.66134e-016)
(0.999146 -5.09023e-018 -0.00764145)
(0.999146 1 -0.00764145)
(0.751594 1.3335e-017 0.0200184)
(0.751594 1 0.0200184)
(0.652491 -3.75492e-017 -0.0563689)
(0.652491 1 -0.0563689)
(0.401651 3.12378e-017 0.0468942)
(0.401651 1 0.0468942)
(0.301601 -4.71397e-017 -0.0707661)
(0.301601 1 -0.0707661)
(0.0512104 1.81435e-017 0.027237)
(0.0512104 1 0.027237)
)

// edges

78
(
(1 2)
(0 1)
(3 0)
(2 3)
(1 4)
(4 5)
(5 2)
(4 6)
(7 5)
(6 8)
(8 9)
(9 7)
(8 10)
(11 9)
(12 13)
(10 12)
(13 11)
(14 15)
(12 14)
(15 13)
(14 16)
(16 17)
(17 15)
(16 18)
(19 17)
(18 20)
(20 21)
(21 19)
(20 22)
(23 21)
(24 25)
(22 24)
(25 23)
(24 26)
(27 25)
(26 0)
(3 27)
(6 7)
(10 11)
(18 19)
(22 23)
(26 27)
(2 0)
(6 5)
(8 7)
(10 9)
(16 15)
(18 17)
(20 19)
(27 24)
(3 26)
(18 12)
(14 18)
(4 2)
(13 10)
(15 12)
(23 20)
(25 22)
(26 1)
(26 4)
(6 26)
(24 6)
(22 6)
(22 8)
(10 22)
(20 10)
(18 10)
(2 27)
(5 27)
(27 7)
(7 25)
(7 23)
(9 23)
(23 11)
(11 21)
(11 19)
(13 19)
(19 15)
)

// concaveStart mixedStart nonFeatureStart
0 0 28
// internalStart flatStart openStart multipleStart
37 42 78 78
// normals

52
(
(-0.812851 -3.8821e-016 -0.582472)
(-0.812851 0 -0.582472)
(-0.582472 5.41468e-016 0.812851)
(-5.23233e-025 -1 6.66134e-016)
(0.582472 0 -0.812851)
(0 1 0)
(3.13311e-023 -1 6.66134e-016)
(-0.582472 0 0.812851)
(0.364477 -0 0.931212)
(0 1 0)
(0.364477 0 0.931212)
(-1.26242e-023 -1 6.66134e-016)
(0 1 0)
(-0.761816 0 0.647793)
(-0.761816 0 0.647793)
(2.26579e-022 -1 6.66134e-016)
(0.380674 -0 0.924709)
(0 1 0)
(0.380674 0 0.924709)
(-1.15563e-022 -1 6.66134e-016)
(0 1 0)
(-0.610485 0 0.792028)
(0.111043 -0 0.993816)
(-6.91459e-023 -1 6.66134e-016)
(-0.610485 0 0.792028)
(0 1 0)
(0.111043 6.60326e-016 0.993816)
(0.993815 -7.39718e-017 -0.111046)
(1.02426e-023 -1 6.66134e-016)
(0 1 0)
(0.993815 0 -0.111046)
(-5.11305e-025 -1 6.66134e-016)
(-0.111043 0 -0.993816)
(0 1 0)
(-0.111043 0 -0.993816)
(0.610485 0 -0.792028)
(0.610485 0 -0.792028)
(-1.27569e-022 -1 6.66134e-016)
(-0.380674 0 -0.924709)
(0 1 0)
(-0.380674 0 -0.924709)
(7.14358e-023 -1 6.66134e-016)
(0 1 0)
(0.761816 0 -0.647793)
(-0.364477 0 -0.931212)
(0 -1 6.66134e-016)
(0.761816 0 -0.647793)
(0 1 0)
(-0.364477 0 -0.931212)
(5.49672e-024 -1 6.66134e-016)
(0 1 0)
(0.582472 0 -0.812851)
)

// normal volume types

52
(
0
0
0
0
0
0
0
0
0
0
0
0
0
0
0
0
0
0
0
0
0
0
0
0
0
0
0
0
0
0
0
0
0
0
0
0
0
0
0
0
0
0
0
0
0
0
0
0
0
0
0
0
)

// normalDirections

78
(
2(1 -1)
2(1 -1)
2(1 -1)
2(1 -1)
2(1 -1)
2(1 -1)
2(1 -1)
2(1 -1)
2(1 -1)
2(1 -1)
2(1 -1)
2(1 -1)
2(1 -1)
2(1 -1)
2(1 -1)
2(1 -1)
2(1 -1)
2(1 -1)
2(1 -1)
2(1 -1)
2(1 -1)
2(1 -1)
2(1 -1)
2(1 -1)
2(1 -1)
2(1 -1)
2(1 -1)
2(1 -1)
2(1 -1)
2(1 -1)
2(1 -1)
2(1 -1)
2(1 -1)
2(1 -1)
2(1 -1)
2(1 -1)
2(1 -1)
2(1 -1)
2(1 -1)
2(1 -1)
2(1 -1)
2(1 -1)
2(1 -1)
2(1 -1)
2(1 -1)
2(1 -1)
2(1 -1)
2(1 -1)
2(1 -1)
2(1 -1)
2(1 -1)
2(1 -1)
2(1 -1)
2(1 -1)
2(1 -1)
2(1 -1)
2(1 -1)
2(1 -1)
2(1 -1)
2(1 -1)
2(1 -1)
2(1 -1)
2(1 -1)
2(1 -1)
2(1 -1)
2(1 -1)
2(1 -1)
2(1 -1)
2(1 -1)
2(1 -1)
2(1 -1)
2(1 -1)
2(1 -1)
2(1 -1)
2(1 -1)
2(1 -1)
2(1 -1)
2(1 -1)
)

// edgeNormals

78
(
2(0 2)
2(0 3)
2(1 4)
2(1 5)
2(2 6)
2(7 8)
2(7 9)
2(8 11)
2(10 12)
2(13 15)
2(14 16)
2(14 17)
2(16 19)
2(18 20)
2(21 22)
2(21 23)
2(24 25)
2(26 27)
2(26 28)
2(22 29)
2(27 31)
2(30 32)
2(30 33)
2(32 31)
2(34 33)
2(35 37)
2(36 38)
2(36 39)
2(40 41)
2(38 42)
2(43 44)
2(43 45)
2(46 47)
2(48 49)
2(44 50)
2(4 3)
2(51 5)
2(10 13)
2(18 24)
2(34 35)
2(40 46)
2(48 51)
2(0 1)
2(8 10)
2(13 14)
2(16 18)
2(27 30)
2(32 34)
2(35 36)
2(48 44)
2(4 51)
2(23 28)
2(31 28)
2(2 7)
2(21 24)
2(26 22)
2(40 38)
2(43 46)
2(3 6)
2(6 11)
2(49 11)
2(49 45)
2(45 15)
2(15 19)
2(41 19)
2(41 37)
2(37 23)
2(5 9)
2(9 12)
2(50 12)
2(50 47)
2(47 17)
2(17 20)
2(42 20)
2(42 39)
2(39 25)
2(25 29)
2(33 29)
)

// featurePointNormals

28
(
3(0 3 4)
3(0 2 3)
3(0 2 5)
3(1 4 5)
3(2 6 8)
3(7 8 9)
3(8 11 13)
3(10 12 14)
3(13 15 16)
3(14 16 17)
3(16 19 21)
3(18 20 24)
3(21 22 23)
3(21 22 25)
3(26 27 28)
3(26 27 29)
3(27 31 32)
3(30 32 33)
3(32 31 35)
3(34 33 36)
3(35 37 38)
3(36 38 39)
3(40 41 43)
3(38 42 46)
3(43 44 45)
3(43 44 47)
3(48 49 4)
3(44 50 51)
)

// featurePointEdges

28
(
4(42 2 35 1)
4(0 4 58 1)
6(42 3 67 6 53 0)
4(2 50 36 3)
5(53 5 7 59 4)
5(5 43 8 68 6)
7(43 37 9 62 61 60 7)
7(37 44 11 71 70 69 8)
5(44 10 12 63 9)
5(10 45 13 72 11)
8(45 38 54 15 66 65 64 12)
6(38 16 75 74 73 13)
5(14 55 18 51 15)
5(54 16 76 19 14)
4(17 20 52 18)
6(55 19 77 22 46 17)
4(46 21 23 20)
4(21 47 24 22)
7(47 39 25 66 51 52 23)
7(39 48 27 75 76 77 24)
6(48 26 56 28 65 25)
4(26 29 74 27)
7(40 57 31 62 63 64 28)
7(56 29 73 72 71 32 40)
5(30 49 33 61 31)
5(57 32 70 34 30)
7(41 50 35 58 59 60 33)
7(49 34 69 68 67 36 41)
)

// regionEdges
0()


// ************************************************************************* //
