/*--------------------------------*- C++ -*----------------------------------*\
| =========                 |                                                 |
| \\      /  F ield         | OpenFOAM: The Open Source CFD Toolbox           |
|  \\    /   O peration     | Version:  5                                     |
|   \\  /    A nd           | Web:      www.OpenFOAM.org                      |
|    \\/     M anipulation  |                                                 |
\*---------------------------------------------------------------------------*/
FoamFile
{
    version     2.0;
    format      ascii;
    class       volScalarField;
    object      nuTilda;
}
// * * * * * * * * * * * * * * * * * * * * * * * * * * * * * * * * * * * * * //
#include "./initialConditions"

dimensions      [0 2 -1 0 0 0 0];

internalField   $muVal;

boundaryField
{
   left
    {
        type            freestream;
        freestreamValue uniform $internalField;
    }

    right
    {
        type            freestream;
        freestreamValue uniform $internalField;
    }

    corgate
    {
        type            nutkWallFunction;
        value           uniform 0;
    }

    top
    {
        type            fixedValue;
        value           uniform 0;
    }

    bottom
    {
        type            fixedValue;
        value           uniform 0;
    }
    frontAndBack
    {
        type            empty;
       
    }
    }
}

// ************************************************************************* //
